%nprocshared=1
%mem=4GB
#p opt b3lyp/6-31g(d,p) scrf=smd geom=connectivity gfprint
integral=grid=ultrafine scf=conver=9

Optimisation calculation for NA_mono_1_I complex
, with B3LYP functional,
6-31g(d,p) basis set
SMD on

-1 1
 C                  3.78166100    0.60034400    1.16590200
 C                  2.95939700   -0.63334600    0.73517200
 C                  3.55677500   -1.98911700    1.17961200
 C                  3.49296000   -2.41592600   -0.30211200
 C                  2.27443400   -0.78982500   -1.77696000
 C                  1.54817300    0.56560400   -1.70347700
 C                  0.13198800    0.48170400   -1.08386700
 C                 -0.20624800    1.67163600   -0.13553800
 C                 -2.25406700    0.18293600   -1.93779900
 C                 -2.72932400   -0.66924600   -0.73333800
 C                 -3.97107400   -0.06471000   -0.06252900
 C                 -4.53128000   -1.02873200    0.99914100
 O                  3.18830600    1.78168300    1.10015300
 O                  4.94227700    0.48416500    1.52176500
 O                  0.71458100    2.02830200    0.65102700
 O                 -1.37196600    2.14396000   -0.13493700
 O                 -4.47444300   -0.52443600    2.23997300
 O                 -4.96746900   -2.13174000    0.74526400
 N                  3.21691000   -1.02296000   -0.68669400
 N                 -0.81197800    0.25297700   -2.19420400
 H                  1.90009700   -0.50164300    0.99195100
 H                  4.56869500   -1.85739400    1.56289700
 H                  2.95523900   -2.57307400    1.87936900
 H                  4.39914500   -2.84892000   -0.74813700
 H                  2.64781600   -3.09553500   -0.51492700
 H                  2.84047600   -0.86688300   -2.71668900
 H                  1.51603200   -1.60055600   -1.81607600
 H                  1.42656900    0.97415300   -2.71211400
 H                 -2.96081100   -1.69749500   -1.03033000
 H                 -1.94373000   -0.72619100    0.02768200
 H                  2.16572800    1.27414100   -1.15120500
 H                 -4.76442100    0.05571000   -0.81810600
 H                 -2.71362500   -0.20757400   -2.85539800
 H                 -2.61051500    1.20375300   -1.80913400
 H                  0.13800100   -0.37683500   -0.38227000
 H                 -0.56501277   -0.63795428   -2.57532028
 H                 -3.13327395    1.70634626    0.01896990
 H                  3.98769885   -0.51466940   -1.07078411
 H                 -0.68832039    1.02817047   -2.81370693
 H                 -3.29972433    1.02670749    1.42181893
 N                 -3.71649800    1.17999800    0.57070100

 1 2 1.0 13 2.0 14 1.0
 2 3 1.0 19 1.0 21 1.0
 3 4 1.0 22 1.0 23 1.0
 4 19 1.0 24 1.0 25 1.0
 5 6 1.0 19 1.0 26 1.0 27 1.0
 6 7 1.0 28 1.0 31 1.0
 7 8 1.0 20 1.0 35 1.0
 8 15 1.0 16 2.0
 9 10 1.0 20 1.0 33 1.0 34 1.0
 10 11 1.0 29 1.0 30 1.0
 11 12 1.0 32 1.0 41 1.0
 12 17 1.0 18 2.0
 13
 14
 15
 16
 17
 18
 19 38 1.0
 20 36 1.0 39 1.0
 21
 22
 23
 24
 25
 26
 27
 28
 29
 30
 31
 32
 33
 34
 35
 36
 37 41 1.0
 38
 39
 40 41 1.0
 41
